[General]
network = SupreblockNetwork
sim-time-limit = 1s
simtime-resolution = ns

*.simulation_config = "examples/incast_simulation_config.pb.txt"
