[General]
network = SingleRackNetwork200G
sim-time-limit = 1s
simtime-resolution = ns

*.simulation_config = "examples/single_rack_uniform_random_200g.pb.txt"
