[General]
network = SingleRackNetwork
sim-time-limit = 1s
simtime-resolution = ns

*.simulation_config = "examples/single_rack_incast_50_to_1_config.pb.txt"
