[General]
network = SingleRackNetwork800G20us
sim-time-limit = 1s
simtime-resolution = ns

*.simulation_config = "examples/single_rack_p2p_800g_rack_tlp.pb.txt"
