[General]
network = SuperblockNetwork200G
sim-time-limit = 1s
simtime-resolution = ns

*.simulation_config = "examples/superblock_incast_10_to_1_200g.pb.txt"
