[General]
network = SuperblockNetwork800G
sim-time-limit = 100ms
simtime-resolution = ns

*.simulation_config = "examples/superblock_permutation_24_800g.pb.txt"
